[Format]      =  4.0
[Frequency]   =  100000
[Precision]   =  1e-008
[MinAngle]    =  30
[DoSmartMesh] =  1
[Depth]       =  1
[LengthUnits] =  millimeters
[ProblemType] =  axisymmetric
[Coordinates] =  cartesian
[ACSolver]    =  0
[PrevType]    =  0
[PrevSoln]    =  ""
[Comment]     =  "WPT coil with Litz wire 90 x 0.1 mm\n"
[PointProps]   = 0
[BdryProps]   = 2
  <BeginBdry>
    <BdryName> = "A=0"
    <BdryType> = 0
    <A_0> = 0
    <A_1> = 0
    <A_2> = 0
    <Phi> = 0
    <c0> = 0
    <c0i> = 0
    <c1> = 0
    <c1i> = 0
    <Mu_ssd> = 0
    <Sigma_ssd> = 0
    <innerangle> = 0
    <outerangle> = 0
  <EndBdry>
  <BeginBdry>
    <BdryName> = "A=0"
    <BdryType> = 0
    <A_0> = 0
    <A_1> = 0
    <A_2> = 0
    <Phi> = 0
    <c0> = 0
    <c0i> = 0
    <c1> = 0
    <c1i> = 0
    <Mu_ssd> = 0
    <Sigma_ssd> = 0
    <innerangle> = 0
    <outerangle> = 0
  <EndBdry>
[BlockProps]  = 10
  <BeginBlock>
    <BlockName> = "Ferrite"
    <Mu_x> = 2000
    <Mu_y> = 2000
    <H_c> = 0
    <H_cAngle> = 0
    <J_re> = 0
    <J_im> = 0
    <Sigma> = 0
    <d_lam> = 0
    <Phi_h> = 0
    <Phi_hx> = 0
    <Phi_hy> = 0
    <LamType> = 0
    <LamFill> = 1
    <NStrands> = 0
    <WireD> = 0
    <BHPoints> = 0
  <EndBlock>
  <BeginBlock>
    <BlockName> = "Copper"
    <Mu_x> = 1
    <Mu_y> = 1
    <H_c> = 0
    <H_cAngle> = 0
    <J_re> = 0
    <J_im> = 0
    <Sigma> = 58
    <d_lam> = 0
    <Phi_h> = 0
    <Phi_hx> = 0
    <Phi_hy> = 0
    <LamType> = 0
    <LamFill> = 1
    <NStrands> = 0
    <WireD> = 0
    <BHPoints> = 0
  <EndBlock>
  <BeginBlock>
    <BlockName> = "Air"
    <Mu_x> = 1
    <Mu_y> = 1
    <H_c> = 0
    <H_cAngle> = 0
    <J_re> = 0
    <J_im> = 0
    <Sigma> = 0
    <d_lam> = 0
    <Phi_h> = 0
    <Phi_hx> = 0
    <Phi_hy> = 0
    <LamType> = 0
    <LamFill> = 1
    <NStrands> = 0
    <WireD> = 0
    <BHPoints> = 0
  <EndBlock>
  <BeginBlock>
    <BlockName> = "u1"
    <Mu_x> = 2.4089242666740582
    <Mu_y> = 2.4089242666740582
    <H_c> = 0
    <H_cAngle> = 0
    <J_re> = 0
    <J_im> = 0
    <Sigma> = 0
    <d_lam> = 0
    <Phi_h> = 0
    <Phi_hx> = 0
    <Phi_hy> = 0
    <LamType> = 0
    <LamFill> = 1
    <NStrands> = 0
    <WireD> = 0
    <BHPoints> = 0
  <EndBlock>
  <BeginBlock>
    <BlockName> = "u2"
    <Mu_x> = 0.14929929105743517
    <Mu_y> = 0.14929929105743517
    <H_c> = 0
    <H_cAngle> = 0
    <J_re> = 0
    <J_im> = 0
    <Sigma> = 0
    <d_lam> = 0
    <Phi_h> = 0
    <Phi_hx> = 0
    <Phi_hy> = 0
    <LamType> = 0
    <LamFill> = 1
    <NStrands> = 0
    <WireD> = 0
    <BHPoints> = 0
  <EndBlock>
  <BeginBlock>
    <BlockName> = "u3"
    <Mu_x> = 13.817592213008757
    <Mu_y> = 13.817592213008757
    <H_c> = 0
    <H_cAngle> = 0
    <J_re> = 0
    <J_im> = 0
    <Sigma> = 0
    <d_lam> = 0
    <Phi_h> = 0
    <Phi_hx> = 0
    <Phi_hy> = 0
    <LamType> = 0
    <LamFill> = 1
    <NStrands> = 0
    <WireD> = 0
    <BHPoints> = 0
  <EndBlock>
  <BeginBlock>
    <BlockName> = "u4"
    <Mu_x> = 0.058217224585269539
    <Mu_y> = 0.058217224585269539
    <H_c> = 0
    <H_cAngle> = 0
    <J_re> = 0
    <J_im> = 0
    <Sigma> = 0
    <d_lam> = 0
    <Phi_h> = 0
    <Phi_hx> = 0
    <Phi_hy> = 0
    <LamType> = 0
    <LamFill> = 1
    <NStrands> = 0
    <WireD> = 0
    <BHPoints> = 0
  <EndBlock>
  <BeginBlock>
    <BlockName> = "u5"
    <Mu_x> = 45.655954531895645
    <Mu_y> = 45.655954531895645
    <H_c> = 0
    <H_cAngle> = 0
    <J_re> = 0
    <J_im> = 0
    <Sigma> = 0
    <d_lam> = 0
    <Phi_h> = 0
    <Phi_hx> = 0
    <Phi_hy> = 0
    <LamType> = 0
    <LamFill> = 1
    <NStrands> = 0
    <WireD> = 0
    <BHPoints> = 0
  <EndBlock>
  <BeginBlock>
    <BlockName> = "u6"
    <Mu_x> = 0.033867295231772787
    <Mu_y> = 0.033867295231772787
    <H_c> = 0
    <H_cAngle> = 0
    <J_re> = 0
    <J_im> = 0
    <Sigma> = 0
    <d_lam> = 0
    <Phi_h> = 0
    <Phi_hx> = 0
    <Phi_hy> = 0
    <LamType> = 0
    <LamFill> = 1
    <NStrands> = 0
    <WireD> = 0
    <BHPoints> = 0
  <EndBlock>
  <BeginBlock>
    <BlockName> = "u7"
    <Mu_x> = 429.04642800993452
    <Mu_y> = 429.04642800993452
    <H_c> = 0
    <H_cAngle> = 0
    <J_re> = 0
    <J_im> = 0
    <Sigma> = 0
    <d_lam> = 0
    <Phi_h> = 0
    <Phi_hx> = 0
    <Phi_hy> = 0
    <LamType> = 0
    <LamFill> = 1
    <NStrands> = 0
    <WireD> = 0
    <BHPoints> = 0
  <EndBlock>
[CircuitProps]  = 8
  <BeginCircuit>
    <CircuitName> = "Turn1"
    <TotalAmps_re> = 1
    <TotalAmps_im> = 0
    <CircuitType> = 0
  <EndCircuit>
  <BeginCircuit>
    <CircuitName> = "Turn2"
    <TotalAmps_re> = 1
    <TotalAmps_im> = 0
    <CircuitType> = 0
  <EndCircuit>
  <BeginCircuit>
    <CircuitName> = "Turn3"
    <TotalAmps_re> = 1
    <TotalAmps_im> = 0
    <CircuitType> = 0
  <EndCircuit>
  <BeginCircuit>
    <CircuitName> = "Turn4"
    <TotalAmps_re> = 1
    <TotalAmps_im> = 0
    <CircuitType> = 0
  <EndCircuit>
  <BeginCircuit>
    <CircuitName> = "Turn5"
    <TotalAmps_re> = 1
    <TotalAmps_im> = 0
    <CircuitType> = 0
  <EndCircuit>
  <BeginCircuit>
    <CircuitName> = "Turn6"
    <TotalAmps_re> = 1
    <TotalAmps_im> = 0
    <CircuitType> = 0
  <EndCircuit>
  <BeginCircuit>
    <CircuitName> = "Turn7"
    <TotalAmps_re> = 1
    <TotalAmps_im> = 0
    <CircuitType> = 0
  <EndCircuit>
  <BeginCircuit>
    <CircuitName> = "Turn8"
    <TotalAmps_re> = 1
    <TotalAmps_im> = 0
    <CircuitType> = 0
  <EndCircuit>
[NumPoints] = 1460
0	-33.584609999999998	0	0
0	37.739609999999999	0	0
0	-30.342599999999997	0	0
0	34.497599999999998	0	0
0	-30.80574428571428	0	0
0	34.960744285714277	0	0
0	-31.268888571428565	0	0
0	35.423888571428563	0	0
0	-31.732032857142858	0	0
0	35.887032857142856	0	0
0	-32.19517714285714	0	0
0	36.350177142857142	0	0
0	-32.658321428571419	0	0
0	36.81332142857142	0	0
0	-33.121465714285705	0	0
0	37.276465714285706	0	0
0	-0.65000000000000002	0	0
0	-3.6499999999999999	0	0
25	-0.65000000000000002	0	0
25	-3.6499999999999999	0	0
11.566000000000001	0.53900000000000003	0	0
11.664	0.53700000000000003	0	0
11.686	0.53900000000000003	0	0
11.783999999999999	0.53700000000000003	0	0
11.805999999999999	0.53900000000000003	0	0
11.903999999999998	0.53700000000000003	0	0
12.165999999999999	0.53900000000000003	0	0
12.263999999999998	0.53700000000000003	0	0
12.286	0.53900000000000003	0	0
12.383999999999999	0.53700000000000003	0	0
12.405999999999999	0.53900000000000003	0	0
12.503999999999998	0.53700000000000003	0	0
12.526	0.53900000000000003	0	0
12.623999999999999	0.53700000000000003	0	0
11.925999999999998	0.53900000000000003	0	0
12.023999999999997	0.53700000000000003	0	0
12.045999999999999	0.53900000000000003	0	0
12.143999999999998	0.53700000000000003	0	0
11.566000000000001	0.41900000000000004	0	0
11.664	0.41700000000000004	0	0
11.686	0.41900000000000004	0	0
11.783999999999999	0.41700000000000004	0	0
11.805999999999999	0.41900000000000004	0	0
11.903999999999998	0.41700000000000004	0	0
12.165999999999999	0.41900000000000004	0	0
12.263999999999998	0.41700000000000004	0	0
12.286	0.41900000000000004	0	0
12.383999999999999	0.41700000000000004	0	0
12.405999999999999	0.41900000000000004	0	0
12.503999999999998	0.41700000000000004	0	0
12.526	0.41900000000000004	0	0
12.623999999999999	0.41700000000000004	0	0
11.925999999999998	0.41900000000000004	0	0
12.023999999999997	0.41700000000000004	0	0
12.045999999999999	0.41900000000000004	0	0
12.143999999999998	0.41700000000000004	0	0
11.566000000000001	0.29900000000000004	0	0
11.664	0.29700000000000004	0	0
11.686	0.29900000000000004	0	0
11.783999999999999	0.29700000000000004	0	0
11.805999999999999	0.29900000000000004	0	0
11.903999999999998	0.29700000000000004	0	0
12.165999999999999	0.29900000000000004	0	0
12.263999999999998	0.29700000000000004	0	0
12.286	0.29900000000000004	0	0
12.383999999999999	0.29700000000000004	0	0
12.405999999999999	0.29900000000000004	0	0
12.503999999999998	0.29700000000000004	0	0
12.526	0.29900000000000004	0	0
12.623999999999999	0.29700000000000004	0	0
11.925999999999998	0.29900000000000004	0	0
12.023999999999997	0.29700000000000004	0	0
12.045999999999999	0.29900000000000004	0	0
12.143999999999998	0.29700000000000004	0	0
11.566000000000001	0.17900000000000005	0	0
11.664	0.17700000000000005	0	0
11.686	0.17900000000000005	0	0
11.783999999999999	0.17700000000000005	0	0
11.805999999999999	0.17900000000000005	0	0
11.903999999999998	0.17700000000000005	0	0
12.165999999999999	0.17900000000000005	0	0
12.263999999999998	0.17700000000000005	0	0
12.286	0.17900000000000005	0	0
12.383999999999999	0.17700000000000005	0	0
12.405999999999999	0.17900000000000005	0	0
12.503999999999998	0.17700000000000005	0	0
12.526	0.17900000000000005	0	0
12.623999999999999	0.17700000000000005	0	0
11.925999999999998	0.17900000000000005	0	0
12.023999999999997	0.17700000000000005	0	0
12.045999999999999	0.17900000000000005	0	0
12.143999999999998	0.17700000000000005	0	0
11.566000000000001	0.059000000000000052	0	0
11.664	0.057000000000000051	0	0
11.686	0.059000000000000052	0	0
11.783999999999999	0.057000000000000051	0	0
11.805999999999999	0.059000000000000052	0	0
11.903999999999998	0.057000000000000051	0	0
12.165999999999999	0.059000000000000052	0	0
12.263999999999998	0.057000000000000051	0	0
12.286	0.059000000000000052	0	0
12.383999999999999	0.057000000000000051	0	0
12.405999999999999	0.059000000000000052	0	0
12.503999999999998	0.057000000000000051	0	0
12.526	0.059000000000000052	0	0
12.623999999999999	0.057000000000000051	0	0
11.925999999999998	0.059000000000000052	0	0
12.023999999999997	0.057000000000000051	0	0
12.045999999999999	0.059000000000000052	0	0
12.143999999999998	0.057000000000000051	0	0
11.566000000000001	-0.060999999999999943	0	0
11.664	-0.062999999999999945	0	0
11.686	-0.060999999999999943	0	0
11.783999999999999	-0.062999999999999945	0	0
11.805999999999999	-0.060999999999999943	0	0
11.903999999999998	-0.062999999999999945	0	0
12.165999999999999	-0.060999999999999943	0	0
12.263999999999998	-0.062999999999999945	0	0
12.286	-0.060999999999999943	0	0
12.383999999999999	-0.062999999999999945	0	0
12.405999999999999	-0.060999999999999943	0	0
12.503999999999998	-0.062999999999999945	0	0
12.526	-0.060999999999999943	0	0
12.623999999999999	-0.062999999999999945	0	0
11.925999999999998	-0.060999999999999943	0	0
12.023999999999997	-0.062999999999999945	0	0
12.045999999999999	-0.060999999999999943	0	0
12.143999999999998	-0.062999999999999945	0	0
11.566000000000001	-0.18099999999999994	0	0
11.664	-0.18299999999999994	0	0
11.686	-0.18099999999999994	0	0
11.783999999999999	-0.18299999999999994	0	0
11.805999999999999	-0.18099999999999994	0	0
11.903999999999998	-0.18299999999999994	0	0
12.165999999999999	-0.18099999999999994	0	0
12.263999999999998	-0.18299999999999994	0	0
12.286	-0.18099999999999994	0	0
12.383999999999999	-0.18299999999999994	0	0
12.405999999999999	-0.18099999999999994	0	0
12.503999999999998	-0.18299999999999994	0	0
12.526	-0.18099999999999994	0	0
12.623999999999999	-0.18299999999999994	0	0
11.925999999999998	-0.18099999999999994	0	0
12.023999999999997	-0.18299999999999994	0	0
12.045999999999999	-0.18099999999999994	0	0
12.143999999999998	-0.18299999999999994	0	0
11.566000000000001	-0.30099999999999993	0	0
11.664	-0.30299999999999994	0	0
11.686	-0.30099999999999993	0	0
11.783999999999999	-0.30299999999999994	0	0
11.805999999999999	-0.30099999999999993	0	0
11.903999999999998	-0.30299999999999994	0	0
12.165999999999999	-0.30099999999999993	0	0
12.263999999999998	-0.30299999999999994	0	0
12.286	-0.30099999999999993	0	0
12.383999999999999	-0.30299999999999994	0	0
12.405999999999999	-0.30099999999999993	0	0
12.503999999999998	-0.30299999999999994	0	0
12.526	-0.30099999999999993	0	0
12.623999999999999	-0.30299999999999994	0	0
11.925999999999998	-0.30099999999999993	0	0
12.023999999999997	-0.30299999999999994	0	0
12.045999999999999	-0.30099999999999993	0	0
12.143999999999998	-0.30299999999999994	0	0
11.566000000000001	-0.42099999999999993	0	0
11.664	-0.42299999999999993	0	0
11.686	-0.42099999999999993	0	0
11.783999999999999	-0.42299999999999993	0	0
11.805999999999999	-0.42099999999999993	0	0
11.903999999999998	-0.42299999999999993	0	0
12.165999999999999	-0.42099999999999993	0	0
12.263999999999998	-0.42299999999999993	0	0
12.286	-0.42099999999999993	0	0
12.383999999999999	-0.42299999999999993	0	0
12.405999999999999	-0.42099999999999993	0	0
12.503999999999998	-0.42299999999999993	0	0
12.526	-0.42099999999999993	0	0
12.623999999999999	-0.42299999999999993	0	0
11.925999999999998	-0.42099999999999993	0	0
12.023999999999997	-0.42299999999999993	0	0
12.045999999999999	-0.42099999999999993	0	0
12.143999999999998	-0.42299999999999993	0	0
11.566000000000001	-0.54099999999999993	0	0
11.664	-0.54299999999999993	0	0
11.686	-0.54099999999999993	0	0
11.783999999999999	-0.54299999999999993	0	0
11.805999999999999	-0.54099999999999993	0	0
11.903999999999998	-0.54299999999999993	0	0
12.165999999999999	-0.54099999999999993	0	0
12.263999999999998	-0.54299999999999993	0	0
12.286	-0.54099999999999993	0	0
12.383999999999999	-0.54299999999999993	0	0
12.405999999999999	-0.54099999999999993	0	0
12.503999999999998	-0.54299999999999993	0	0
12.526	-0.54099999999999993	0	0
12.623999999999999	-0.54299999999999993	0	0
11.925999999999998	-0.54099999999999993	0	0
12.023999999999997	-0.54299999999999993	0	0
12.045999999999999	-0.54099999999999993	0	0
12.143999999999998	-0.54299999999999993	0	0
12.816000000000001	0.53900000000000003	0	0
12.914	0.53700000000000003	0	0
12.936	0.53900000000000003	0	0
13.033999999999999	0.53700000000000003	0	0
13.055999999999999	0.53900000000000003	0	0
13.153999999999998	0.53700000000000003	0	0
13.415999999999999	0.53900000000000003	0	0
13.513999999999998	0.53700000000000003	0	0
13.536	0.53900000000000003	0	0
13.633999999999999	0.53700000000000003	0	0
13.655999999999999	0.53900000000000003	0	0
13.753999999999998	0.53700000000000003	0	0
13.776	0.53900000000000003	0	0
13.873999999999999	0.53700000000000003	0	0
13.175999999999998	0.53900000000000003	0	0
13.273999999999997	0.53700000000000003	0	0
13.295999999999999	0.53900000000000003	0	0
13.393999999999998	0.53700000000000003	0	0
14.066000000000001	0.53900000000000003	0	0
14.164	0.53700000000000003	0	0
14.186	0.53900000000000003	0	0
14.283999999999999	0.53700000000000003	0	0
14.305999999999999	0.53900000000000003	0	0
14.403999999999998	0.53700000000000003	0	0
14.665999999999999	0.53900000000000003	0	0
14.763999999999998	0.53700000000000003	0	0
14.786	0.53900000000000003	0	0
14.883999999999999	0.53700000000000003	0	0
14.905999999999999	0.53900000000000003	0	0
15.003999999999998	0.53700000000000003	0	0
15.026	0.53900000000000003	0	0
15.123999999999999	0.53700000000000003	0	0
14.425999999999998	0.53900000000000003	0	0
14.523999999999997	0.53700000000000003	0	0
14.545999999999999	0.53900000000000003	0	0
14.643999999999998	0.53700000000000003	0	0
15.316000000000001	0.53900000000000003	0	0
15.414	0.53700000000000003	0	0
15.436	0.53900000000000003	0	0
15.533999999999999	0.53700000000000003	0	0
15.555999999999999	0.53900000000000003	0	0
15.653999999999998	0.53700000000000003	0	0
15.915999999999999	0.53900000000000003	0	0
16.013999999999996	0.53700000000000003	0	0
16.036000000000001	0.53900000000000003	0	0
16.134	0.53700000000000003	0	0
16.155999999999999	0.53900000000000003	0	0
16.253999999999998	0.53700000000000003	0	0
16.276	0.53900000000000003	0	0
16.373999999999999	0.53700000000000003	0	0
15.675999999999998	0.53900000000000003	0	0
15.773999999999997	0.53700000000000003	0	0
15.795999999999999	0.53900000000000003	0	0
15.893999999999998	0.53700000000000003	0	0
16.566000000000003	0.53900000000000003	0	0
16.664000000000001	0.53700000000000003	0	0
16.686	0.53900000000000003	0	0
16.783999999999999	0.53700000000000003	0	0
16.805999999999997	0.53900000000000003	0	0
16.903999999999996	0.53700000000000003	0	0
17.165999999999997	0.53900000000000003	0	0
17.263999999999996	0.53700000000000003	0	0
17.286000000000001	0.53900000000000003	0	0
17.384	0.53700000000000003	0	0
17.405999999999999	0.53900000000000003	0	0
17.503999999999998	0.53700000000000003	0	0
17.526	0.53900000000000003	0	0
17.623999999999999	0.53700000000000003	0	0
16.925999999999998	0.53900000000000003	0	0
17.023999999999997	0.53700000000000003	0	0
17.045999999999999	0.53900000000000003	0	0
17.143999999999998	0.53700000000000003	0	0
17.816000000000003	0.53900000000000003	0	0
17.914000000000001	0.53700000000000003	0	0
17.936	0.53900000000000003	0	0
18.033999999999999	0.53700000000000003	0	0
18.055999999999997	0.53900000000000003	0	0
18.153999999999996	0.53700000000000003	0	0
18.415999999999997	0.53900000000000003	0	0
18.513999999999996	0.53700000000000003	0	0
18.536000000000001	0.53900000000000003	0	0
18.634	0.53700000000000003	0	0
18.655999999999999	0.53900000000000003	0	0
18.753999999999998	0.53700000000000003	0	0
18.776	0.53900000000000003	0	0
18.873999999999999	0.53700000000000003	0	0
18.175999999999998	0.53900000000000003	0	0
18.273999999999997	0.53700000000000003	0	0
18.295999999999999	0.53900000000000003	0	0
18.393999999999998	0.53700000000000003	0	0
19.066000000000003	0.53900000000000003	0	0
19.164000000000001	0.53700000000000003	0	0
19.186	0.53900000000000003	0	0
19.283999999999999	0.53700000000000003	0	0
19.305999999999997	0.53900000000000003	0	0
19.403999999999996	0.53700000000000003	0	0
19.665999999999997	0.53900000000000003	0	0
19.763999999999996	0.53700000000000003	0	0
19.786000000000001	0.53900000000000003	0	0
19.884	0.53700000000000003	0	0
19.905999999999999	0.53900000000000003	0	0
20.003999999999998	0.53700000000000003	0	0
20.026	0.53900000000000003	0	0
20.123999999999999	0.53700000000000003	0	0
19.425999999999998	0.53900000000000003	0	0
19.523999999999997	0.53700000000000003	0	0
19.545999999999999	0.53900000000000003	0	0
19.643999999999998	0.53700000000000003	0	0
20.316000000000003	0.53900000000000003	0	0
20.414000000000001	0.53700000000000003	0	0
20.436	0.53900000000000003	0	0
20.533999999999999	0.53700000000000003	0	0
20.555999999999997	0.53900000000000003	0	0
20.653999999999996	0.53700000000000003	0	0
20.915999999999997	0.53900000000000003	0	0
21.013999999999996	0.53700000000000003	0	0
21.036000000000001	0.53900000000000003	0	0
21.134	0.53700000000000003	0	0
21.155999999999999	0.53900000000000003	0	0
21.253999999999998	0.53700000000000003	0	0
21.276	0.53900000000000003	0	0
21.373999999999999	0.53700000000000003	0	0
20.675999999999998	0.53900000000000003	0	0
20.773999999999997	0.53700000000000003	0	0
20.795999999999999	0.53900000000000003	0	0
20.893999999999998	0.53700000000000003	0	0
12.816000000000001	0.41900000000000004	0	0
12.914	0.41700000000000004	0	0
12.936	0.41900000000000004	0	0
13.033999999999999	0.41700000000000004	0	0
13.055999999999999	0.41900000000000004	0	0
13.153999999999998	0.41700000000000004	0	0
13.415999999999999	0.41900000000000004	0	0
13.513999999999998	0.41700000000000004	0	0
13.536	0.41900000000000004	0	0
13.633999999999999	0.41700000000000004	0	0
13.655999999999999	0.41900000000000004	0	0
13.753999999999998	0.41700000000000004	0	0
13.776	0.41900000000000004	0	0
13.873999999999999	0.41700000000000004	0	0
13.175999999999998	0.41900000000000004	0	0
13.273999999999997	0.41700000000000004	0	0
13.295999999999999	0.41900000000000004	0	0
13.393999999999998	0.41700000000000004	0	0
12.816000000000001	0.29900000000000004	0	0
12.914	0.29700000000000004	0	0
12.936	0.29900000000000004	0	0
13.033999999999999	0.29700000000000004	0	0
13.055999999999999	0.29900000000000004	0	0
13.153999999999998	0.29700000000000004	0	0
13.415999999999999	0.29900000000000004	0	0
13.513999999999998	0.29700000000000004	0	0
13.536	0.29900000000000004	0	0
13.633999999999999	0.29700000000000004	0	0
13.655999999999999	0.29900000000000004	0	0
13.753999999999998	0.29700000000000004	0	0
13.776	0.29900000000000004	0	0
13.873999999999999	0.29700000000000004	0	0
13.175999999999998	0.29900000000000004	0	0
13.273999999999997	0.29700000000000004	0	0
13.295999999999999	0.29900000000000004	0	0
13.393999999999998	0.29700000000000004	0	0
12.816000000000001	0.17900000000000005	0	0
12.914	0.17700000000000005	0	0
12.936	0.17900000000000005	0	0
13.033999999999999	0.17700000000000005	0	0
13.055999999999999	0.17900000000000005	0	0
13.153999999999998	0.17700000000000005	0	0
13.415999999999999	0.17900000000000005	0	0
13.513999999999998	0.17700000000000005	0	0
13.536	0.17900000000000005	0	0
13.633999999999999	0.17700000000000005	0	0
13.655999999999999	0.17900000000000005	0	0
13.753999999999998	0.17700000000000005	0	0
13.776	0.17900000000000005	0	0
13.873999999999999	0.17700000000000005	0	0
13.175999999999998	0.17900000000000005	0	0
13.273999999999997	0.17700000000000005	0	0
13.295999999999999	0.17900000000000005	0	0
13.393999999999998	0.17700000000000005	0	0
12.816000000000001	0.059000000000000052	0	0
12.914	0.057000000000000051	0	0
12.936	0.059000000000000052	0	0
13.033999999999999	0.057000000000000051	0	0
13.055999999999999	0.059000000000000052	0	0
13.153999999999998	0.057000000000000051	0	0
13.415999999999999	0.059000000000000052	0	0
13.513999999999998	0.057000000000000051	0	0
13.536	0.059000000000000052	0	0
13.633999999999999	0.057000000000000051	0	0
13.655999999999999	0.059000000000000052	0	0
13.753999999999998	0.057000000000000051	0	0
13.776	0.059000000000000052	0	0
13.873999999999999	0.057000000000000051	0	0
13.175999999999998	0.059000000000000052	0	0
13.273999999999997	0.057000000000000051	0	0
13.295999999999999	0.059000000000000052	0	0
13.393999999999998	0.057000000000000051	0	0
12.816000000000001	-0.060999999999999943	0	0
12.914	-0.062999999999999945	0	0
12.936	-0.060999999999999943	0	0
13.033999999999999	-0.062999999999999945	0	0
13.055999999999999	-0.060999999999999943	0	0
13.153999999999998	-0.062999999999999945	0	0
13.415999999999999	-0.060999999999999943	0	0
13.513999999999998	-0.062999999999999945	0	0
13.536	-0.060999999999999943	0	0
13.633999999999999	-0.062999999999999945	0	0
13.655999999999999	-0.060999999999999943	0	0
13.753999999999998	-0.062999999999999945	0	0
13.776	-0.060999999999999943	0	0
13.873999999999999	-0.062999999999999945	0	0
13.175999999999998	-0.060999999999999943	0	0
13.273999999999997	-0.062999999999999945	0	0
13.295999999999999	-0.060999999999999943	0	0
13.393999999999998	-0.062999999999999945	0	0
12.816000000000001	-0.18099999999999994	0	0
12.914	-0.18299999999999994	0	0
12.936	-0.18099999999999994	0	0
13.033999999999999	-0.18299999999999994	0	0
13.055999999999999	-0.18099999999999994	0	0
13.153999999999998	-0.18299999999999994	0	0
13.415999999999999	-0.18099999999999994	0	0
13.513999999999998	-0.18299999999999994	0	0
13.536	-0.18099999999999994	0	0
13.633999999999999	-0.18299999999999994	0	0
13.655999999999999	-0.18099999999999994	0	0
13.753999999999998	-0.18299999999999994	0	0
13.776	-0.18099999999999994	0	0
13.873999999999999	-0.18299999999999994	0	0
13.175999999999998	-0.18099999999999994	0	0
13.273999999999997	-0.18299999999999994	0	0
13.295999999999999	-0.18099999999999994	0	0
13.393999999999998	-0.18299999999999994	0	0
12.816000000000001	-0.30099999999999993	0	0
12.914	-0.30299999999999994	0	0
12.936	-0.30099999999999993	0	0
13.033999999999999	-0.30299999999999994	0	0
13.055999999999999	-0.30099999999999993	0	0
13.153999999999998	-0.30299999999999994	0	0
13.415999999999999	-0.30099999999999993	0	0
13.513999999999998	-0.30299999999999994	0	0
13.536	-0.30099999999999993	0	0
13.633999999999999	-0.30299999999999994	0	0
13.655999999999999	-0.30099999999999993	0	0
13.753999999999998	-0.30299999999999994	0	0
13.776	-0.30099999999999993	0	0
13.873999999999999	-0.30299999999999994	0	0
13.175999999999998	-0.30099999999999993	0	0
13.273999999999997	-0.30299999999999994	0	0
13.295999999999999	-0.30099999999999993	0	0
13.393999999999998	-0.30299999999999994	0	0
12.816000000000001	-0.42099999999999993	0	0
12.914	-0.42299999999999993	0	0
12.936	-0.42099999999999993	0	0
13.033999999999999	-0.42299999999999993	0	0
13.055999999999999	-0.42099999999999993	0	0
13.153999999999998	-0.42299999999999993	0	0
13.415999999999999	-0.42099999999999993	0	0
13.513999999999998	-0.42299999999999993	0	0
13.536	-0.42099999999999993	0	0
13.633999999999999	-0.42299999999999993	0	0
13.655999999999999	-0.42099999999999993	0	0
13.753999999999998	-0.42299999999999993	0	0
13.776	-0.42099999999999993	0	0
13.873999999999999	-0.42299999999999993	0	0
13.175999999999998	-0.42099999999999993	0	0
13.273999999999997	-0.42299999999999993	0	0
13.295999999999999	-0.42099999999999993	0	0
13.393999999999998	-0.42299999999999993	0	0
12.816000000000001	-0.54100000000000004	0	0
12.914	-0.54300000000000004	0	0
12.936	-0.54100000000000004	0	0
13.033999999999999	-0.54300000000000004	0	0
13.055999999999999	-0.54100000000000004	0	0
13.153999999999998	-0.54300000000000004	0	0
13.415999999999999	-0.54100000000000004	0	0
13.513999999999998	-0.54300000000000004	0	0
13.536	-0.54100000000000004	0	0
13.633999999999999	-0.54300000000000004	0	0
13.655999999999999	-0.54100000000000004	0	0
13.753999999999998	-0.54300000000000004	0	0
13.776	-0.54100000000000004	0	0
13.873999999999999	-0.54300000000000004	0	0
13.175999999999998	-0.54100000000000004	0	0
13.273999999999997	-0.54300000000000004	0	0
13.295999999999999	-0.54100000000000004	0	0
13.393999999999998	-0.54300000000000004	0	0
14.066000000000001	0.41900000000000004	0	0
14.164	0.41700000000000004	0	0
14.186	0.41900000000000004	0	0
14.283999999999999	0.41700000000000004	0	0
14.305999999999999	0.41900000000000004	0	0
14.403999999999998	0.41700000000000004	0	0
14.665999999999999	0.41900000000000004	0	0
14.763999999999998	0.41700000000000004	0	0
14.786	0.41900000000000004	0	0
14.883999999999999	0.41700000000000004	0	0
14.905999999999999	0.41900000000000004	0	0
15.003999999999998	0.41700000000000004	0	0
15.026	0.41900000000000004	0	0
15.123999999999999	0.41700000000000004	0	0
14.425999999999998	0.41900000000000004	0	0
14.523999999999997	0.41700000000000004	0	0
14.545999999999999	0.41900000000000004	0	0
14.643999999999998	0.41700000000000004	0	0
14.066000000000001	0.29900000000000004	0	0
14.164	0.29700000000000004	0	0
14.186	0.29900000000000004	0	0
14.283999999999999	0.29700000000000004	0	0
14.305999999999999	0.29900000000000004	0	0
14.403999999999998	0.29700000000000004	0	0
14.665999999999999	0.29900000000000004	0	0
14.763999999999998	0.29700000000000004	0	0
14.786	0.29900000000000004	0	0
14.883999999999999	0.29700000000000004	0	0
14.905999999999999	0.29900000000000004	0	0
15.003999999999998	0.29700000000000004	0	0
15.026	0.29900000000000004	0	0
15.123999999999999	0.29700000000000004	0	0
14.425999999999998	0.29900000000000004	0	0
14.523999999999997	0.29700000000000004	0	0
14.545999999999999	0.29900000000000004	0	0
14.643999999999998	0.29700000000000004	0	0
14.066000000000001	0.17900000000000005	0	0
14.164	0.17700000000000005	0	0
14.186	0.17900000000000005	0	0
14.283999999999999	0.17700000000000005	0	0
14.305999999999999	0.17900000000000005	0	0
14.403999999999998	0.17700000000000005	0	0
14.665999999999999	0.17900000000000005	0	0
14.763999999999998	0.17700000000000005	0	0
14.786	0.17900000000000005	0	0
14.883999999999999	0.17700000000000005	0	0
14.905999999999999	0.17900000000000005	0	0
15.003999999999998	0.17700000000000005	0	0
15.026	0.17900000000000005	0	0
15.123999999999999	0.17700000000000005	0	0
14.425999999999998	0.17900000000000005	0	0
14.523999999999997	0.17700000000000005	0	0
14.545999999999999	0.17900000000000005	0	0
14.643999999999998	0.17700000000000005	0	0
14.066000000000001	0.059000000000000052	0	0
14.164	0.057000000000000051	0	0
14.186	0.059000000000000052	0	0
14.283999999999999	0.057000000000000051	0	0
14.305999999999999	0.059000000000000052	0	0
14.403999999999998	0.057000000000000051	0	0
14.665999999999999	0.059000000000000052	0	0
14.763999999999998	0.057000000000000051	0	0
14.786	0.059000000000000052	0	0
14.883999999999999	0.057000000000000051	0	0
14.905999999999999	0.059000000000000052	0	0
15.003999999999998	0.057000000000000051	0	0
15.026	0.059000000000000052	0	0
15.123999999999999	0.057000000000000051	0	0
14.425999999999998	0.059000000000000052	0	0
14.523999999999997	0.057000000000000051	0	0
14.545999999999999	0.059000000000000052	0	0
14.643999999999998	0.057000000000000051	0	0
14.066000000000001	-0.060999999999999943	0	0
14.164	-0.062999999999999945	0	0
14.186	-0.060999999999999943	0	0
14.283999999999999	-0.062999999999999945	0	0
14.305999999999999	-0.060999999999999943	0	0
14.403999999999998	-0.062999999999999945	0	0
14.665999999999999	-0.060999999999999943	0	0
14.763999999999998	-0.062999999999999945	0	0
14.786	-0.060999999999999943	0	0
14.883999999999999	-0.062999999999999945	0	0
14.905999999999999	-0.060999999999999943	0	0
15.003999999999998	-0.062999999999999945	0	0
15.026	-0.060999999999999943	0	0
15.123999999999999	-0.062999999999999945	0	0
14.425999999999998	-0.060999999999999943	0	0
14.523999999999997	-0.062999999999999945	0	0
14.545999999999999	-0.060999999999999943	0	0
14.643999999999998	-0.062999999999999945	0	0
14.066000000000001	-0.18099999999999994	0	0
14.164	-0.18299999999999994	0	0
14.186	-0.18099999999999994	0	0
14.283999999999999	-0.18299999999999994	0	0
14.305999999999999	-0.18099999999999994	0	0
14.403999999999998	-0.18299999999999994	0	0
14.665999999999999	-0.18099999999999994	0	0
14.763999999999998	-0.18299999999999994	0	0
14.786	-0.18099999999999994	0	0
14.883999999999999	-0.18299999999999994	0	0
14.905999999999999	-0.18099999999999994	0	0
15.003999999999998	-0.18299999999999994	0	0
15.026	-0.18099999999999994	0	0
15.123999999999999	-0.18299999999999994	0	0
14.425999999999998	-0.18099999999999994	0	0
14.523999999999997	-0.18299999999999994	0	0
14.545999999999999	-0.18099999999999994	0	0
14.643999999999998	-0.18299999999999994	0	0
14.066000000000001	-0.30099999999999993	0	0
14.164	-0.30299999999999994	0	0
14.186	-0.30099999999999993	0	0
14.283999999999999	-0.30299999999999994	0	0
14.305999999999999	-0.30099999999999993	0	0
14.403999999999998	-0.30299999999999994	0	0
14.665999999999999	-0.30099999999999993	0	0
14.763999999999998	-0.30299999999999994	0	0
14.786	-0.30099999999999993	0	0
14.883999999999999	-0.30299999999999994	0	0
14.905999999999999	-0.30099999999999993	0	0
15.003999999999998	-0.30299999999999994	0	0